Version 4
SHEET 1 880 680
WIRE 112 64 -16 64
WIRE -16 96 -16 64
WIRE 112 96 112 64
WIRE 256 256 112 256
WIRE 112 384 -16 384
WIRE -16 416 -16 384
WIRE 112 416 112 384
WIRE 224 496 112 496
FLAG -16 176 0
FLAG 256 256 Vs1
IOPIN 256 256 Out
FLAG 112 336 0
FLAG -16 496 0
FLAG 224 496 Vs2
IOPIN 224 496 Out
FLAG 112 576 0
SYMBOL res 96 80 R0
SYMATTR InstName R1
SYMATTR Value 1k
SYMBOL res 96 160 R0
SYMATTR InstName R2
SYMATTR Value 10k
SYMBOL voltage -16 80 R0
WINDOW 123 0 0 Left 0
WINDOW 39 0 0 Left 0
SYMATTR InstName V1
SYMATTR Value 24
SYMBOL res 96 240 R0
SYMATTR InstName R3
SYMATTR Value 1k
SYMBOL res 96 400 R0
SYMATTR InstName R4
SYMATTR Value 10k
SYMBOL res 96 480 R0
SYMATTR InstName R5
SYMATTR Value 2k
SYMBOL voltage -16 400 R0
WINDOW 123 0 0 Left 0
WINDOW 39 0 0 Left 0
SYMATTR InstName V2
SYMATTR Value 24
TEXT -176 352 Left 2 !.tran 10
